
$ Elements and Element Properties for region : 2D_Shell_Al6061
PSHELL   1       1       .002    1               1
$ Pset: "2D_Shell_Al6061" will be imported as: "pshell.1"
CQUAD4   1       1       1000    1001    1006    1005
CQUAD4   2       1       1001    1002    1007    1006
CQUAD4   3       1       1002    1003    1008    1007
CQUAD4   4       1       1003    107     1009    1008
CQUAD4   5       1       1005    1006    1011    1010
CQUAD4   6       1       1006    1007    1012    1011
CQUAD4   7       1       1007    1008    1013    1012
CQUAD4   8       1       1008    1009    1014    1013
CQUAD4   9       1       1010    1011    1016    1015
CQUAD4   10      1       1011    1012    1017    1016
CQUAD4   11      1       1012    1013    1018    1017
CQUAD4   12      1       1013    1014    1019    1018
CQUAD4   13      1       1015    1016    1021    1020
CQUAD4   14      1       1016    1017    1022    1021
CQUAD4   15      1       1017    1018    108     1022
CQUAD4   16      1       1018    1019    1024    108
CQUAD4   17      1       1020    1025    1034    1015
CQUAD4   18      1       1025    1026    1031    1034
CQUAD4   19      1       1026    1027    1030    1031
CQUAD4   20      1       1027    1028    1029    1030
$ ... 604 like lines cut
$ Elements and Element Properties for region : 1D_Beam_Ext
PBAR*    2               1               5.6000001-5     2.7786666-9
*        8.9866664-10    2.0886428-9
         .01     .005    -.01    .005    -.01    -.005   .01     -.005
        .6428571.2857143 0.
$ Pset: "1D_Beam_Ext" will be imported as: "pbar.2"
CBAR     1000    2       1028    1029    0.      0.      1.
                         0.      0.      -.011   0.      0.      -.011
CBAR     1001    2       1029    1032    0.      0.      1.
                         0.      0.      -.011   0.      0.      -.011
CBAR     1002    2       1032    1037    0.      0.      1.
                         0.      0.      -.011   0.      0.      -.011
CBAR     1003    2       1037    1039    0.      0.      1.
                         0.      0.      -.011   0.      0.      -.011
CBAR     1004    2       1039    1042    0.      0.      1.
                         0.      0.      -.011   0.      0.      -.011
CBAR     1005    2       1042    1000    0.      0.      1.
                         0.      0.      -.011   0.      0.      -.011
CBAR     1006    2       1000    1043    0.      0.      1.
                         0.      0.      -.011   0.      0.      -.011
CBAR     1007    2       1043    1046    0.      0.      1.
                         0.      0.      -.011   0.      0.      -.011
CBAR     1008    2       1046    1051    0.      0.      1.
                         0.      0.      -.011   0.      0.      -.011
CBAR     1009    2       1051    1053    0.      0.      1.
                         0.      0.      -.011   0.      0.      -.011
CBAR     1010    2       1053    1056    0.      0.      1.
                         0.      0.      -.011   0.      0.      -.011
CBAR     1011    2       1056    1060    0.      0.      1.
                         0.      0.      -.011   0.      0.      -.011
CBAR     1012    2       1060    1065    0.      0.      1.
                         0.      0.      -.011   0.      0.      -.011
CBAR     1013    2       1065    1068    0.      0.      1.
                         0.      0.      -.011   0.      0.      -.011
CBAR     1014    2       1068    1073    0.      0.      1.
                         0.      0.      -.011   0.      0.      -.011
CBAR     1015    2       1073    1075    0.      0.      1.
                         0.      0.      -.011   0.      0.      -.011
CBAR     1016    2       1075    1078    0.      0.      1.
                         0.      0.      -.011   0.      0.      -.011
CBAR     1017    2       1078    1082    0.      0.      1.
                         0.      0.      -.011   0.      0.      -.011
CBAR     1018    2       1082    1087    0.      0.      1.
                         0.      0.      -.011   0.      0.      -.011
CBAR     1019    2       1087    1090    0.      0.      1.
                         0.      0.      -.011   0.      0.      -.011
$ ... 152 like lines cut
$ Elements and Element Properties for region : 0D_Mass_Inf
CONM2*   577             1673                            39.325001
*
$ Elements and Element Properties for region : 1D_Beam_Int
PBAR*    3               1               5.6000001-5     2.7786666-9
*        8.9866664-10    2.0886428-9
         .01     .005    -.01    .005    -.01    -.005   .01     -.005
        .6428571.2857143 0.
$ Pset: "1D_Beam_Int" will be imported as: "pbar.3"
CBAR     1096    3       1020    1015    0.      0.      1.
                         0.      0.      -.011   0.      0.      -.011
CBAR     1097    3       1015    1010    0.      0.      1.
                         0.      0.      -.011   0.      0.      -.011
CBAR     1098    3       1010    1005    0.      0.      1.
                         0.      0.      -.011   0.      0.      -.011
CBAR     1099    3       1005    1000    0.      0.      1.
                         0.      0.      -.011   0.      0.      -.011
CBAR     1100    3       1020    1025    0.      0.      1.
                         0.      0.      -.011   0.      0.      -.011
CBAR     1101    3       1025    1026    0.      0.      1.
                         0.      0.      -.011   0.      0.      -.011
CBAR     1102    3       1026    1027    0.      0.      1.
                         0.      0.      -.011   0.      0.      -.011
CBAR     1103    3       1027    1028    0.      0.      1.
                         0.      0.      -.011   0.      0.      -.011
CBAR     1104    3       1000    1001    0.      0.      1.
                         0.      0.      -.011   0.      0.      -.011
CBAR     1105    3       1001    1002    0.      0.      1.
                         0.      0.      -.011   0.      0.      -.011
CBAR     1106    3       1002    1003    0.      0.      1.
                         0.      0.      -.011   0.      0.      -.011
CBAR     1107    3       1003    107     0.      0.      1.
                         0.      0.      -.011   0.      0.      -.011
CBAR     1108    3       107     1009    0.      0.      1.
                         0.      0.      -.011   0.      0.      -.011
CBAR     1109    3       1009    1014    0.      0.      1.
                         0.      0.      -.011   0.      0.      -.011
CBAR     1110    3       1014    1019    0.      0.      1.
                         0.      0.      -.011   0.      0.      -.011
CBAR     1111    3       1019    1024    0.      0.      1.
                         0.      0.      -.011   0.      0.      -.011
CBAR     1112    3       1024    108     0.      0.      1.
                         0.      0.      -.011   0.      0.      -.011
CBAR     1113    3       108     1022    0.      0.      1.
                         0.      0.      -.011   0.      0.      -.011
CBAR     1114    3       1022    1021    0.      0.      1.
                         0.      0.      -.011   0.      0.      -.011
CBAR     1115    3       1021    1020    0.      0.      1.
                         0.      0.      -.011   0.      0.      -.011
$ ... 472 like lines cut
$ Elements and Element Properties for region : 1D_Bush
PBUSH    4       K       1.+9    1.+9    1.+9    100.    1.+7    1.+7
$ Pset: "1D_Bush" will be imported as: "pbush.4"
CBUSH    1352    4       100     200     1.      0.      0.
CBUSH    1353    4       101     201     1.      0.      0.
CBUSH    1354    4       102     202     1.      0.      0.
CBUSH    1355    4       103     203     1.      0.      0.
CBUSH    1356    4       104     204     1.      0.      0.
CBUSH    1357    4       105     205     1.      0.      0.
CBUSH    1358    4       106     206     1.      0.      0.
CBUSH    1359    4       107     207     1.      0.      0.
CBUSH    1360    4       108     208     1.      0.      0.
CBUSH    1361    4       109     209     1.      0.      0.
CBUSH    1362    4       110     210     1.      0.      0.
CBUSH    1363    4       111     211     1.      0.      0.
$ Elements and Element Properties for region : 0D_Mass_Int
CONM2    3000    1674            11.
$ Referenced Material Records
$ Material Record : Ti64
$ Description of Material : Date: 17-May-23           Time: 17:07:01
MAT1     1       1.14+11         .342    3440.
$ Multipoint Constraints of the Entire Model
$ ID conflict : the PATRAN MPC ID was 2
RBE2     3049    1674    123     1415    1450    1497    1531
$ ID conflict : the PATRAN MPC ID was 3
RBE2     3050    1673    123     1000    1028    1029    1032    1037
         1039    1042    1043    1046    1051    1053    1056    1060
         1065    1068    1073    1075    1078    1082    1087    1090
         1095    1097    1100    1104    1105    1108    1113    1115
         1118    1122    1127    1130    1135    1137    1140    1144
         1149    1152    1157    1159    1162    1166    1171    1174
         1179    1181    1184    1188    1189    1192    1197    1199
         1202    1206    1211    1214    1219    1221    1224    1228
         1233    1236    1241    1243    1246    1250    1255    1256
         1259    1264    1266    1269    1273    1277    1280    1285
         1287    1290    1295    1298    1303    1305    1308    1312
         1317    1320    1325    1327    1330    1334    1338    1341
         1346    1348    1351
$ Nodes of the Entire Model
GRID*    100                            -.05625000596046.168750002980232
*        0.
GRID*    101                            .056249991059303.168750002980232
*        0.
GRID*    102                            .126562491059303.126562505960464
*        0.
GRID*    103                            .168750002980232.056249998509884
*        0.
GRID*    104                            .168750002980232-.05624999850988
*        0.
GRID*    105                            .126562505960464 -.1265624910593
*        0.
GRID*    106                            .056249991059303-.16875000298023
*        0.
GRID*    107                            -.05624999850988-.16875000298023
*        0.
GRID*    108                             -.1265624910593 -.1265624910593
*        0.
GRID*    109                            -.16875000298023-.05625001341105
*        0.
GRID*    110                            -.16875000298023.056249983608723
*        0.
GRID*    111                            -.12656252086163.126562476158142
*        0.
GRID*    200                            -.05625000596046.168750002980232
*        -.02
GRID*    201                            .056249991059303.168750002980232
*        -.02
GRID*    202                            .126562491059303.126562505960464
*        -.02
GRID*    203                            .168750002980232.056249998509884
*        -.02
GRID*    204                            .168750002980232-.05624999850988
*        -.02
GRID*    205                            .126562505960464 -.1265624910593
*        -.02
GRID*    206                            .056249991059303-.16875000298023
*        -.02
GRID*    207                            -.05624999850988-.16875000298023
*        -.02
$ ... 50 like lines cut
GRID     1022           -.140625-.140625 0.
GRID*    1024                           -.11249999701977-.11249999701977
*        0.
GRID*    1025                           -.18281249701977-.18281249701977
*        0.
GRID*    1026                           -.19687500596046-.19687500596046
*        0.
GRID*    1027                            -.2109375       -.2109375
*        0.
GRID*    1028                           -.22499999403954-.22499999403954
*        0.
GRID*    1029                           -.20624999701977-.22499999403954
*        0.
GRID*    1030                           -.19498908519745-.21414971351624
*        0.
GRID*    1031                           -.18242983520031-.20362676680088
*        0.
GRID*    1032                            -.1875         -.22499999403954
*        0.
GRID*    1033                           -.18009623885155-.21731333434582
*        0.
GRID*    1034                           -.16880922019482-.19321949779987
*        0.
GRID*    1035                           -.16887353360653-.21046978235245
*        0.
GRID*    1036                           -.16883634030819 -.219875395298
*        0.
GRID*    1037                           -.16874998807907-.22499999403954
*        0.
GRID*    1038                           -.15760126709938-.21739107370377
*        0.
GRID*    1039                            -.1499999910593-.22499999403954
*        0.
GRID*    1040                           -.15525072813034-.20369583368301
*        0.
GRID*    1041                           -.14266611635685-.21425610780716
*        0.
GRID*    1042                           -.13124999403954-.22499999403954
*        0.
GRID*    1043                            -.09375        -.22499999403954
*        0.
$ ... 628 like lines cut
GRID     1365            .140625-.140625 0.
GRID*    1367                           .112500004470348-.11249998956919
*        0.
GRID*    1368                           .112499982118607.196875005960464
*        0.
GRID*    1369                            .09843748062849.182812511920929
*        0.
GRID*    1370                           .084374979138374.168750002980232
*        0.
GRID*    1371                           .070312485098839.154687508940697
*        0.
GRID*    1372                           .126562491059303.182812511920929
*        0.
GRID*    1373                           .112499982118607.168750002980232
*        0.
GRID*    1374                            .09843748062849.154687508940697
*        0.
GRID*    1375                           .084374986588955 .140625
*        0.
GRID*    1376                           .140624985098839.168750017881393
*        0.
GRID*    1377                           .126562491059303.154687508940697
*        0.
GRID*    1378                           .112499982118607 .140625
*        0.
GRID*    1379                           .098437488079071.126562505960464
*        0.
GRID*    1380                           .154687494039536.154687523841858
*        0.
GRID*    1381                           .140624985098839.140625014901161
*        0.
GRID*    1383                           .112499989569187.112500004470348
*        0.
GRID*    1384                           -.19687500596046.112499974668026
*        0.
GRID*    1385                           -.18281251192093 .09843747317791
*        0.
GRID*    1386                           -.16875001788139.084374971687794
*        0.
GRID*    1387                            -.1546875089407.070312477648258
*        0.
$ ... 572 like lines cut
